10

N           9.8690   19.0360   21.7790
N          10.2410   18.0460   22.5900
C          11.1510   18.5880   23.3250
N          11.4610   19.8510   23.1040
C          10.6340   20.1290   22.1190
N          11.8350   17.9250   24.3330
H           9.1530   18.9710   21.0540
H          10.5880   21.1260   21.6490
H          12.5550   18.3530   24.9140
H          12.2460   17.0900   23.9150
